
     RDKit          3D

 28 32  0  0  0  0  0  0  0  0999 V2000
    1.5932   -0.1378   -1.5442 C   0  0  0  0  0  0  0  0  0  0  0  0
    3.0950    0.0331   -1.3389 C   0  0  0  0  0  0  0  0  0  0  0  0
    3.5204   -0.4428   -0.0127 N   0  0  0  0  0  0  0  0  0  0  0  0
    2.8082   -1.6473    0.4553 C   0  0  0  0  0  0  0  0  0  0  0  0
    2.1896   -2.4736   -0.6783 C   0  0  0  0  0  0  0  0  0  0  0  0
    1.2274   -1.6251   -1.5199 C   0  0  0  0  0  0  0  0  0  0  0  0
   -0.2307   -1.8390   -1.1223 C   0  0  0  0  0  0  0  0  0  0  0  0
   -0.5205   -1.3641    0.2954 C   0  0  0  0  0  0  0  0  0  0  0  0
   -1.9627   -1.5609    0.6096 C   0  0  0  0  0  0  0  0  0  0  0  0
   -2.4866   -2.6993    1.1229 N   0  0  0  0  0  0  0  0  0  0  0  0
   -3.7800   -2.5285    1.2209 O   0  0  0  0  0  0  0  0  0  0  0  0
   -4.1156   -1.3378    0.7878 C   0  0  0  0  0  0  0  0  0  0  0  0
   -2.9848   -0.6725    0.3776 C   0  0  0  0  0  0  0  0  0  0  0  0
   -3.0157    0.6232   -0.1483 C   0  0  0  0  0  0  0  0  0  0  0  0
   -4.2890    1.2097   -0.2270 C   0  0  0  0  0  0  0  0  0  0  0  0
   -4.6345    2.5630   -0.7358 C   0  0  0  0  0  0  0  0  0  0  0  0
   -6.1201    2.5302   -0.5352 C   0  0  0  0  0  0  0  0  0  0  0  0
   -6.8793    3.4889   -0.8307 O   0  0  0  0  0  0  0  0  0  0  0  0
   -6.6107    1.3121    0.0236 N   0  0  0  0  0  0  0  0  0  0  0  0
   -5.4370    0.5377    0.1920 C   0  0  0  0  0  0  0  0  0  0  0  0
   -5.3890   -0.7650    0.7150 C   0  0  0  0  0  0  0  0  0  0  0  0
    4.9303   -0.7871   -0.1124 C   0  0  0  0  0  0  0  0  0  0  0  0
    5.7595    0.2631    0.5430 C   0  0  0  0  0  0  0  0  0  0  0  0
    6.2534    1.3355   -0.2080 C   0  0  0  0  0  0  0  0  0  0  0  0
    7.0128    2.3328    0.4116 C   0  0  0  0  0  0  0  0  0  0  0  0
    7.2747    2.2614    1.7834 C   0  0  0  0  0  0  0  0  0  0  0  0
    6.7756    1.1939    2.5362 C   0  0  0  0  0  0  0  0  0  0  0  0
    6.0161    0.1964    1.9170 C   0  0  0  0  0  0  0  0  0  0  0  0
  1  2  1  0
  2  3  1  0
  3  4  1  0
  4  5  1  0
  5  6  1  0
  6  7  1  0
  7  8  1  0
  8  9  1  0
  9 10  2  0
 10 11  1  0
 11 12  1  0
 12 13  2  0
 13 14  1  0
 14 15  2  0
 15 16  1  0
 16 17  1  0
 17 18  2  0
 17 19  1  0
 19 20  1  0
 20 21  2  0
  3 22  1  0
 22 23  1  0
 23 24  2  0
 24 25  1  0
 25 26  2  0
 26 27  1  0
 27 28  2  0
  6  1  1  0
 13  9  1  0
 21 12  1  0
 20 15  1  0
 28 23  1  0
M  END
$$$$
