REMARK VINA RESULT:    -5.845      0.000      0.000
REMARK INTER + INTRA:          -8.576
REMARK INTER:                  -8.172
REMARK INTRA:                  -0.404
REMARK UNBOUND:                -0.339
REMARK  8 active torsions:
REMARK  status: ('A' for Active; 'I' for Inactive)
REMARK    1  A    between atoms: C2_2  and  O1_3 
REMARK    2  A    between atoms: O1_3  and  P1_4 
REMARK    3  A    between atoms: P1_4  and  O3_6 
REMARK    4  A    between atoms: P1_4  and  S1_9 
REMARK    5  A    between atoms: O3_6  and  C3_7 
REMARK    6  A    between atoms: S1_9  and  C5_10 
REMARK    7  A    between atoms: C5_10  and  C6_11 
REMARK    8  A    between atoms: C6_11  and  N1_12 
ROOT
HETATM    1  C1  UNL     1      -8.875 -42.199  27.459  1.00  0.00     0.035 C 
HETATM    2  C2  UNL     1      -9.387 -43.331  28.323  1.00  0.00     0.152 C 
ENDROOT
BRANCH   2   3
HETATM    3  O1  UNL     1     -10.762 -43.476  28.132  1.00  0.00    -0.297 OA
BRANCH   3   4
HETATM    4  P1  UNL     1     -11.271 -44.569  29.325  1.00  0.00     0.288 P 
HETATM    5  O2  UNL     1     -10.052 -45.260  29.897  1.00  0.00    -0.241 OA
HETATM    6  I1  UNL     1     -11.355 -45.955  28.444  1.00  0.00     0.137 I 
BRANCH   4   7
HETATM    7  O3  UNL     1     -12.079 -43.725  30.558  1.00  0.00    -0.297 OA
BRANCH   7   8
HETATM    8  C3  UNL     1     -11.646 -44.298  31.755  1.00  0.00     0.152 C 
HETATM    9  C4  UNL     1     -10.984 -43.238  32.610  1.00  0.00     0.035 C 
ENDBRANCH   7   8
ENDBRANCH   4   7
BRANCH   4  10
HETATM   10  S1  UNL     1     -12.555 -46.020  28.463  1.00  0.00    -0.043 SA
BRANCH  10  11
HETATM   11  C5  UNL     1     -13.808 -44.775  28.038  1.00  0.00     0.101 C 
BRANCH  11  12
HETATM   12  C6  UNL     1     -14.179 -44.883  26.558  1.00  0.00     0.229 C 
BRANCH  12  13
HETATM   13  N1  UNL     1     -14.521 -43.596  25.947  1.00  0.00    -0.000 N 
HETATM   14  C7  UNL     1     -15.749 -43.049  26.502  1.00  0.00     0.250 C 
HETATM   15  C8  UNL     1     -14.652 -43.718  24.502  1.00  0.00     0.250 C 
HETATM   16  C9  UNL     1     -13.445 -42.663  26.225  1.00  0.00     0.250 C 
ENDBRANCH  12  13
ENDBRANCH  11  12
ENDBRANCH  10  11
ENDBRANCH   4  10
ENDBRANCH   3   4
ENDBRANCH   2   3
TORSDOF 8
