REMARK VINA RESULT:   -13.179      0.000      0.000
REMARK INTER + INTRA:         -17.326
REMARK INTER:                 -16.813
REMARK INTRA:                  -0.514
REMARK UNBOUND:                -0.295
REMARK  5 active torsions:
REMARK  status: ('A' for Active; 'I' for Inactive)
REMARK    1  A    between atoms: N1_3  and  C17_22 
REMARK    2  A    between atoms: C5_6  and  C6_7 
REMARK    3  A    between atoms: C6_7  and  C7_8 
REMARK    4  A    between atoms: C7_8  and  C8_9 
REMARK    5  A    between atoms: C17_22  and  C18_23 
ROOT
HETATM    1  C1  UNL     1     -11.698 -44.138  28.095  1.00  0.00     0.035 C 
HETATM    2  C2  UNL     1     -10.801 -44.571  29.251  1.00  0.00     0.251 C 
HETATM    3  N1  UNL     1     -11.581 -44.859  30.465  1.00  0.00     0.141 N 
HETATM    4  C3  UNL     1     -12.881 -45.508  30.210  1.00  0.00     0.251 C 
HETATM    5  C4  UNL     1     -12.949 -46.237  28.863  1.00  0.00     0.035 C 
HETATM    6  C5  UNL     1     -12.635 -45.283  27.702  1.00  0.00     0.004 C 
ENDROOT
BRANCH   6   7
HETATM    7  C6  UNL     1     -13.899 -44.767  27.020  1.00  0.00     0.006 C 
BRANCH   7   8
HETATM    8  C7  UNL     1     -13.675 -43.438  26.312  1.00  0.00     0.048 C 
BRANCH   8   9
HETATM    9  C8  UNL     1     -14.726 -43.231  25.278  1.00  0.00     0.088 A 
HETATM   10  N2  UNL     1     -14.514 -43.308  23.944  1.00  0.00    -0.131 NA
HETATM   11  O1  UNL     1     -15.643 -43.022  23.348  1.00  0.00    -0.211 OA
HETATM   12  C9  UNL     1     -16.571 -42.757  24.235  1.00  0.00     0.128 A 
HETATM   13  C10 UNL     1     -16.035 -42.872  25.496  1.00  0.00     0.040 A 
HETATM   14  C16 UNL     1     -17.905 -42.401  24.019  1.00  0.00     0.046 A 
HETATM   15  C11 UNL     1     -16.775 -42.638  26.659  1.00  0.00     0.001 A 
HETATM   16  C12 UNL     1     -18.117 -42.279  26.456  1.00  0.00     0.005 A 
HETATM   17  C13 UNL     1     -19.140 -41.973  27.490  1.00  0.00     0.118 A 
HETATM   18  C15 UNL     1     -18.664 -42.166  25.178  1.00  0.00     0.083 A 
HETATM   19  C14 UNL     1     -20.310 -41.680  26.598  1.00  0.00     0.260 A 
HETATM   20  O2  UNL     1     -21.447 -41.360  27.032  1.00  0.00    -0.270 OA
HETATM   21  N3  UNL     1     -20.030 -41.794  25.203  1.00  0.00    -0.212 NA
ENDBRANCH   8   9
ENDBRANCH   7   8
ENDBRANCH   6   7
BRANCH   3  22
HETATM   22  C17 UNL     1     -10.793 -45.775  31.274  1.00  0.00     0.277 C 
BRANCH  22  23
HETATM   23  C18 UNL     1      -9.535 -45.112  31.721  1.00  0.00     0.011 A 
HETATM   24  C19 UNL     1      -9.589 -43.869  32.360  1.00  0.00    -0.002 A 
HETATM   25  C20 UNL     1      -8.410 -43.257  32.800  1.00  0.00    -0.000 A 
HETATM   26  C21 UNL     1      -7.179 -43.891  32.604  1.00  0.00    -0.000 A 
HETATM   27  C22 UNL     1      -7.126 -45.136  31.973  1.00  0.00    -0.000 A 
HETATM   28  C23 UNL     1      -8.304 -45.749  31.533  1.00  0.00    -0.002 A 
ENDBRANCH  22  23
ENDBRANCH   3  22
TORSDOF 5
